<?xml version="1.0" encoding="UTF-8"?>

<!-- generated on 2023-02-08 17:57:58.578188 by cutRoutes.py UNKNOWN
  options: selected1km/selected1km.net.xml DCC_emitters.emi.xml DCC_routes.rou.xml <doubleminus>routes-output selected1km/selected1km.rou.xml <doubleminus>orig-net DCC.net.xml
-->

<routes xmlns:xsi="http://www.w3.org/2001/XMLSchema-instance" xsi:noNamespaceSchemaLocation="http://sumo.dlr.de/xsd/routes_file.xsd">
    <vType id="Ambulance"  length="5" accel="2.6" decel="4.5" sigma="1.0" guiShape="emergency" color="white" />
    <vType id="trailer"  length="10" accel="2.6" decel="4.5" sigma="1.0" guiShape="truck/trailer" color="red" />
    <vType id="fueltruck"  length="10" accel="2.6" decel="4.5" sigma="1.0" guiShape="truck/trailer" color="black" />

    <route edges="-4475730 2294384#0 4472590#0 37721356#0 4078079#1 38192817 gneE51 gneE52 -43321722 -43321718#3" id="394744908#1_to_302527226#1"/>
    <route edges="4074528#0 125872847#0 3792428 3792427#0 52879956 357012332#0 357012332#1 59604115 37956677#0 2294310#0 375772038#0 375772038#6 7849019#2 7849021#0 7849022#0 524737392#0 -523892327#0" id="394744908#1_to_-523892327#0"/>
    <route edges="-4475730 2294384#0 4472590#0 37721356#0 4078079#1 38192815" id="394744908#1_to_38192815"/>
    <route edges="4074528#0 125872847#0 3792428 3792427#0 52879956 357012332#0 357012332#1 59604115 37956677#0 2294310#0 375772038#0 14151839#0 14151839#3" id="394744908#1_to_14151839#3"/>
    <route edges="-4475730 2294384#0 4472590#0 37721356#0 4078079#1 38192817 gneE51 gneE49 532427445#0 77616869#0 8080823#0" id="394744908#1_to_13866327#1"/>
    <route edges="-4475730 2294384#0 4472590#0 37721356#0 4078079#1 38192817 gneE51 5976022 341583777#0 369977731" id="394744908#1_to_23050598"/>
    <route edges="-4475730 2294384#0 4472590#0 37721356#0 4078079#1 38192817 gneE51 gneE49 532427445#0 77616869#0 8080823#0" id="394744908#1_to_25638778"/>
    <route edges="-4475730 2294384#0 4472590#0 37721356#0 4078079#1 38192817 gneE51 gneE52 -43321722 -43321718#3" id="394744908#1_to_360313825#2"/>
    <route edges="4074528#0 125872847#0 3792428 3792427#0 52879956 357012332#0 357012332#1 59604115 37956677#0 2294310#0 375772038#0 375772038#6 53750891#0 521969635#0 -553868720 -553868718#0" id="394744908#1_to_532097269#1"/>
    <route edges="-4475730 2294384#0 4472590#0 37721356#0 4078079#1 38192817 gneE51 gneE49 532427445#0 77616869#0 8080823#0" id="394744908#1_to_129211786#0"/>
    <route edges="-4475730 2294384#0 4472590#0 37721356#0 4078079#1 38192817 gneE51 gneE49 532427445#0 77616869#0 8080823#0" id="394744908#1_to_-129211835#3"/>
    <route edges="-4475730 2294384#0 4472590#0 37721356#0 4078079#1 38192817 gneE51 gneE49 532427445#0 77616869#0 8080823#0" id="394744908#1_to_13866329#0"/>
    <route edges="-4475730 2294384#0 4472590#0 37721356#0 4078079#1 38192817 gneE51 gneE49 532427445#0 77616869#0 8080823#0" id="394744908#1_to_-13866329#1"/>
    <route edges="4074528#0 125872847#0 3792428 3792427#0 52879956 357012332#0 357012332#1 59604115 37956677#0 4476051#0 352376956#0 4472595#0 26602093#0 14152304#0 14152304#2 -532427444#6 -532427444#3" id="394744908#1_to_-532427444#3"/>
    <route edges="-4475730 2294384#0 4472590#0 37721356#0 4078079#1 38192817 gneE51 gneE49 532427445#0 77616869#0 8080823#0" id="394744908#1_to_-13866327#3"/>
    <route edges="-4475730 2294384#0 4472590#0 37721356#0 4078079#1 38192817 gneE51 gneE49 532427445#0 77616869#0 8080823#0" id="394744908#1_to_13866330#1"/>
    <route edges="-4475730 2294384#0 4472590#0 37721356#0 4078079#1 38192817 gneE51 gneE49 532427445#0 77616869#0 8080823#0" id="394744908#1_to_13866341#0"/>
    <route edges="4074528#0 125872847#0 3792428 3792427#0 52879956 357012332#0 357012332#1 59604115 37956677#0 2294310#0 375772038#0 375772038#6 53750891#0 521969635#0 -553868720 -553868718#0" id="394744908#1_to_-68748138#1"/>
    <route edges="-4475730 2294384#0 4472590#0 37721356#0 4078079#1 38192817 gneE51 gneE52 -43321722 -43321718#3" id="394744908#1_to_228818584.21"/>
    <route edges="-4475730 2294384#0 4472590#0 37721356#0 4078079#1 38192817 gneE51 gneE52 -43321722 -43321718#3" id="394744908#1_to_129211793#0"/>
    <route edges="4074528#0 125872847#0 3792428 3792427#0 52879956 357012332#0 357012332#1 -53750892#4" id="394744908#1_to_-53750892#4"/>
    <route edges="-4475730 2294384#0 4472590#0 37721356#0 4078079#1 38192817 gneE51 gneE49 532427445#0 77616869#0 8080823#0" id="394744908#1_to_-13866265"/>
    <route edges="-4475730 2294384#0 4472590#0 37721356#0 4078079#1 38192817 gneE51 gneE52 -43321722 -43321718#3" id="394744908#1_to_302527226#0"/>
    <route edges="-4475730 2294384#0 4472590#0 37721356#0 4078079#1 38192817 gneE51 gneE52 -43321722 -43321718#3" id="394744908#1_to_-129211821#6"/>
    <route edges="-4475730 2294384#0 4472590#0 37721356#0 4078079#1 38192817 gneE51 gneE52 -43321722 -43321718#3" id="394744908#1_to_129211828#0"/>
    <route edges="-4475730 2294384#0 4472590#0 37721356#0 4078079#1 38192817 gneE51 5976022 341583777#0 369977731" id="394744908#1_to_23050597"/>
    <route edges="-4475730 2294384#0 4472590#0 37721356#0 4078079#1 38192817 gneE51 gneE49 532427445#0 77616869#0 8080823#0" id="394744908#1_to_129211835#4"/>
    <route edges="-4475730 2294384#0 4472590#0 37721356#0 4078079#1 38192817 gneE51 5976022 341583777#0 369977731" id="394744908#1_to_60010826#3"/>
    <route edges="-4475730 2294384#0 4472590#0 37721356#0 4078079#1 38192817 gneE51 5976022 341583777#0 369977731" id="394744908#1_to_23045781"/>
    <route edges="-4475730 2294384#0 4472590#0 37721356#0 4078079#1 38192817 gneE51 gneE52 -43321722 -43321718#3" id="394744908#1_to_41502636#0"/>
    <route edges="-4475730 2294384#0 4472590#0 37721356#0 4078079#1 38192817 gneE51 gneE49 532427445#0 77616869#0 8080823#0" id="394744908#1_to_317027065#2"/>
    <route edges="-4475730 2294384#0 4472590#0 37721356#0 4078079#1 38192817 gneE51 gneE49 532427445#0 77616869#0 8080823#0" id="394744908#1_to_-125880830#4"/>
    <route edges="-4475730 2294384#0 4472590#0 37721356#0 4078079#1 38192817 gneE51 gneE52 -43321722 -43321718#3" id="394744908#1_to_-129211823#2"/>
    <route edges="-4475730 2294384#0 4472590#0 37721356#0 4078079#1 38192817 gneE51 gneE49 532427445#0 77616869#0 8080823#0" id="394744908#1_to_-25638749#0"/>
    <route edges="-4475730 2294384#0 4472590#0 37721356#0 4078079#1 38192817 gneE51 gneE52 -43321722 -43321718#3" id="394744908#1_to_gneE72"/>
    <route edges="-4475730 2294384#0 4472590#0 37721356#0 4078079#1 38192817 gneE51 5976022 341583777#0 369977731" id="394744908#1_to_23045782"/>
    <route edges="-4475730 2294384#0 4472590#0 37721356#0 4078079#1 38192817 gneE51 gneE49 532427445#0 77616869#0 8080823#0" id="394744908#1_to_48460623#2"/>
    <route edges="-4475730 2294384#0 4472590#0 37721356#0 4078079#1 38192817 gneE51 5976022 341583777#0 369977731" id="394744908#1_to_4915298#0"/>
    <route edges="-4475730 2294384#0 4472590#0 37721356#0 4078079#1 38192817 gneE51 gneE52 -43321722 -43321718#3" id="394744908#1_to_302527228#0"/>
    <route edges="-4475730 2294384#0 4472590#0 37721356#0 4078079#1 38192817 gneE51 gneE49 532427445#0 77616869#0 8080823#0" id="394744908#1_to_-48460623#0"/>
    <route edges="4074528#0 125872847#0 3792428 3792427#0 52879956 357012332#0 357012332#1 59604115 37956677#0 2294310#0 375772038#0 375772038#6 7849019#2 523892327#0 53750892#0 2110698#0 271848004#1" id="394744908#1_to_271848004#1"/>
    <route edges="-4475730 2294384#0 4472590#0 37721356#0 4078079#1 38192817 gneE51 gneE49 532427445#0 77616869#0 8080823#0" id="394744908#1_to_-13866340#0"/>
    <route edges="4074528#0 125872847#0 3792428 10577341#0" id="394744908#1_to_10577341#0"/>
    <route edges="4074528#0 125872847#0 3792428 3792427#0 52879956 357012332#0 357012332#1 59604115 37956677#0 4476051#0 352376956#0 4472595#0 26602093#0 14152304#0 14152308 4919460 4919471#2" id="394744908#1_to_4919471#2"/>
    <route edges="-4475730 2294384#0 4472590#0 37721356#0 4078079#1 38192817 gneE51 gneE49 532427445#0 77616869#0 8080823#0" id="394744908#1_to_-228373557#1"/>
    <route edges="-4475730 2294384#0 4472590#0 37721356#0 4078079#1 38192817 gneE51 5976022 341583777#0 369977731" id="394744908#1_to_350497554"/>
    <route edges="-4475730 2294384#0 4472590#0 37721356#0 4078079#1 38192817 gneE51 gneE49 532427445#0 77616869#0 8080823#0" id="394744908#1_to_13866267"/>
    <route edges="4074528#0 125872847#0 3792428 3792427#0 52879956 357012332#0 357012332#1 59604115 37956677#0 2294310#0 375772038#0 375772038#6 7849019#2 7849021#0 521969636 3790875#2 2294311#0" id="394744908#1_to_2294311#0"/>
    <route edges="-4475730 2294384#0 4472590#0 37721356#0 4078079#1 38192817 gneE51 gneE49 532427445#0 77616869#0 8080823#0" id="394744908#1_to_25638749#3"/>
    <route edges="-4475730 2294384#0 4472590#0 37721356#0 4078079#1 38192817 gneE51 gneE52 -43321722 -43321718#3" id="394744908#1_to_48455136#1"/>
    <route edges="-4475730 2294384#0 4472590#0 37721356#0 4078079#1 38192817 gneE51 gneE52 -43321722 -43321718#3" id="394744908#1_to_228818591#0"/>
    <route edges="-4475730 2294384#0 4472590#0 37721356#0 4078079#1 38192817 gneE51 gneE49 532427445#0 14039609#0 -14039611#1 14039614" id="394744908#1_to_14039614"/>
    <route edges="-4475730 2294384#0 4472590#0 37721356#0 4078079#1 38192817 gneE51 gneE52 -43321722 -43321718#3" id="394744908#1_to_-129211835#5"/>
    <route edges="-4475730 2294384#0 4472590#0 37721356#0 4078079#1 38192817 gneE51 5976022 341583777#0 369977731" id="394744908#1_to_52375081#0"/>
    <route edges="-4475730 2294384#0 4472590#0 37721356#0 4078079#1 38192817 gneE51 gneE52 -43321722 -43321718#3" id="394744908#1_to_48455140#0"/>
    <route edges="4074528#0 125872847#0 3792428 3792427#0 52879956 357012332#0 357012332#1 59604115 37956677#0 4476051#0 352376956#0 4472595#0 26602093#0 14152304#0 14152308 24349650 -532427444#7" id="394744908#1_to_-532427444#7"/>
    <route edges="-4475730 2294384#0 4472590#0 37721356#0 4078079#1 38192817 gneE51 gneE49 532427445#0 77616869#0 8080823#0" id="394744908#1_to_13866340#1"/>
    <route edges="-4475730 2294384#0 4472590#0 37721356#0 4078079#1 38192817 gneE51 gneE52 -43321722 -43321718#3" id="394744908#1_to_-237581109#1"/>
    <route edges="-4475730 2294384#0 4472590#0 37721356#0 4078079#1 38192817 gneE51 gneE52 -43321722 -43321718#3" id="394744908#1_to_43321720#2"/>
    <route edges="-4475730 2294384#0 4472590#0 37721356#0 4078079#1 38192817 gneE51 gneE49 532427445#0 14039609#0 -14039611#1 -14039611#0" id="394744908#1_to_-14039611#0"/>
    <route edges="-4475730 2294384#0 4472590#0 37721356#0 4078079#1 38192817 gneE51 gneE49 532427445#0 77616869#0 8080823#0" id="394744908#1_to_-317027065#0"/>
    <route edges="4074528#0 125872847#0 3792428 3792427#0 52879956 357012332#0 357012332#1 59604115 37956677#0 4476051#0 352376956#0 4472595#0 26602093#0 15464769#2 15464767#0 -14039867#2 -341583777#1" id="394744908#1_to_-341583777#1"/>
    <route edges="4074528#0 125872847#0 3792428 3792427#0 52879956 357012332#0 357012332#1 59604115 37956677#0 4476051#0 352376956#0 4472595#0 26602093#0 14152304#0 14152304#2 532427444#7 16309917#0" id="394744908#1_to_16309917#0"/>
    <route edges="4074528#0 125872847#0 3792428 3792427#0 344354262 gneE62 37721356#0 4078079#1 38192817 gneE51 5976022 341583777#0 369977731" id="-129217471#2_to_-360313823#1"/>
    <route edges="4074528#0 125872847#0 3792428 3792427#0 344354262 gneE62 37721356#0 4078079#1 38192817 gneE51 gneE52 -43321722 -43321718#3" id="-129217471#2_to_30221015#0"/>
    <route edges="4074528#0 125872847#0 3792428 3792427#0 344354262 gneE62 37721356#0 4078079#1 38192817 gneE51 gneE52 -43321722 -43321718#3" id="-129217471#2_to_22962975#1"/>
    <route edges="4074528#0 125872847#0 3792428 3792427#0 52879956 357012332#0 357012332#1 59604115 37956677#0 2294310#0 375772038#0 375772038#6 53750891#0 521969635#0 -553868720 -553868718#0" id="-129217471#2_to_532097269#1"/>
    <route edges="4074528#0 125872847#0 3792428 3792427#0 344354262 gneE62 37721356#0 4078079#1 38192817 gneE51 gneE49 532427445#0 77616869#0 8080823#0" id="-129217471#2_to_13866268#0"/>
    <route edges="4074528#0 125872847#0 3792428 3792427#0 52879956 357012332#0 357012332#1 59604115 37956677#0 2294310#0 375772038#0 375772038#6 7849019#2 523892327#0 53750892#0 2110698#0 271848004#1" id="-129217471#2_to_271848004#1"/>
    <route edges="4074528#0 125872847#0 3792428 3792427#0 52879956 357012332#0 357012332#1 59604115 37956677#0 2294310#0 375772038#0 375772038#6 7849019#2 7849021#0 7849022#0 524737392#0 -523892327#0" id="-129217471#2_to_-523892327#0"/>
    <route edges="4074528#0 125872847#0 3792428 3792427#0 344354262 gneE62 37721356#0 4078079#1 38192817 gneE51 gneE52 -43321722 -43321718#3" id="-129217471#2_to_43321720#0"/>
    <route edges="4074528#0 125872847#0 3792428 3792427#0 52879956 357012332#0 357012332#1 59604115 37956677#0 4476051#0 352376956#0 4472595#0 26602093#0 14152304#0 14152308 4919460 4919471#2" id="-129217471#2_to_4919471#2"/>
    <route edges="4074528#0 125872847#0 3792428 3792427#0 344354262 gneE62 37721356#0 4078079#1 38192817 gneE51 5976022 341583777#0 369977731" id="-129217471#2_to_23045780#2"/>
    <route edges="4074528#0 125872847#0 3792428 3792427#0 344354262 gneE62 37721356#0 4078079#1 38192817 gneE51 5976022 341583777#0 532427444#0 532427444#3 532427444#4 -14152304#3 -14152304#1" id="-129217471#2_to_-14152304#1"/>
    <route edges="4074528#0 125872847#0 3792428 3792427#0 52879956 357012332#0 357012332#1 59604115 37956677#0 4476051#0 352376956#0 4472595#0 26602093#0 14152304#0 14152304#2 -532427444#6 -532427444#3" id="-129217471#2_to_-532427444#3"/>
    <route edges="4074528#0 125872847#0 3792428 10577341#0" id="-129217471#2_to_10577341#0"/>
    <route edges="4074528#0 125872847#0 3792428 3792427#0 344354262 gneE62 37721356#0 4078079#1 38192817 gneE51 gneE49 532427445#0 77616869#0 8080823#0" id="-129217471#2_to_22962975#4"/>
    <route edges="4074528#0 125872847#0 3792428 3792427#0 344354262 gneE62 37721356#0 4078079#1 38192817 gneE51 5976022 341583777#0 369977731" id="-129217471#2_to_-16309916#0"/>
    <route edges="4074528#0 125872847#0 3792428 3792427#0 52879956 357012332#0 357012332#1 59604115 37956677#0 2294310#0 375772038#0 375772038#6 53750891#0 521969635#0 -553868720 -553868718#0" id="-129217471#2_to_-68748138#1"/>
    <route edges="4074528#0 125872847#0 3792428 3792427#0 344354262 gneE62 37721356#0 4078079#1 38192815" id="-129217471#2_to_38192815"/>
    <route edges="4074528#0 125872847#0 3792428 3792427#0 344354262 gneE62 37721356#0 4078079#1 38192817 gneE51 gneE49 532427445#0 77616869#0 8080823#0" id="-129217471#2_to_48455137#2"/>
    <route edges="4074528#0 125872847#0 3792428 3792427#0 344354262 gneE62 37721356#0 4078079#1 38192817 gneE51 gneE49 532427445#0 77616869#0 8080823#0" id="-129217471#2_to_13866268#2"/>
    <route edges="4074528#0 125872847#0 3792428 3792427#0 52879956 357012332#0 357012332#1 59604115 37956677#0 4476051#0 352376956#0 4472595#0 26602093#0 14152304#0 14152308 24349650 -532427444#7" id="-129217471#2_to_-532427444#7"/>
    <route edges="4074528#0 125872847#0 3792428 3792427#0 344354262 gneE62 37721356#0 4078079#1 38192817 gneE51 gneE52 -43321722 -43321718#3" id="-129217471#2_to_41502636#0"/>
    <route edges="4074528#0 125872847#0 3792428 3792427#0 344354262 gneE62 37721356#0 4078079#1 38192817 gneE51 gneE49 532427445#0 77616869#0 8080823#0" id="-129217471#2_to_48455143"/>
    <route edges="4074528#0 125872847#0 3792428 3792427#0 344354262 gneE62 37721356#0 4078079#1 38192817 gneE51 gneE49 532427445#0 77616869#0 8080823#0" id="-129217471#2_to_-22962975#1"/>
    <route edges="4074528#0 125872847#0 3792428 3792427#0 344354262 gneE62 37721356#0 4078079#1 38192817 gneE51 gneE52 -43321722 -43321718#3" id="-129217471#2_to_-369977727#1"/>
    <route edges="4074528#0 125872847#0 3792428 3792427#0 344354262 gneE62 37721356#0 4078079#1 38192817 gneE51 gneE49 532427445#0 14039609#0 -14039611#1 14039614" id="-129217471#2_to_14039614"/>
    <route edges="4074528#0 125872847#0 3792428 3792427#0 344354262 gneE62 37721356#0 4078079#1 38192817 gneE51 5976022 341583777#0 369977731" id="-129217471#2_to_376466424#0"/>
    <route edges="4074528#0 125872847#0 3792428 3792427#0 52879956 357012332#0 357012332#1 59604115 37956677#0 4476051#0 352376956#0 4472595#0 26602093#0 15464769#2 15464767#0 -14039867#2 -341583777#1" id="-129217471#2_to_-341583777#1"/>
    <route edges="4074528#0 125872847#0 3792428 3792427#0 344354262 gneE62 37721356#0 4078079#1 38192817 gneE51 5976022 341583777#0 369977731" id="-129217471#2_to_350497554"/>
    <route edges="4074528#0 125872847#0 3792428 3792427#0 344354262 gneE62 37721356#0 4078079#1 38192817 gneE51 gneE52 -43321722 -43321718#3" id="-129217471#2_to_4078078#0"/>
    <route edges="4074528#0 125872847#0 3792428 3792427#0 52879956 357012332#0 357012332#1 59604115 37956677#0 2294310#0 375772038#0 375772038#6 7849019#2 7849021#0 521969636 3790875#2 2294311#0" id="-129217471#2_to_2294311#0"/>
    <route edges="4074528#0 125872847#0 3792428 3792427#0 344354262 gneE62 37721356#0 4078079#1 38192817 gneE51 gneE49 532427445#0 77616869#0 8080823#0" id="-129217471#2_to_48455139#0"/>
    <route edges="4074528#0 125872847#0 3792428 3792427#0 344354262 gneE62 37721356#0 4078079#1 38192817 gneE51 gneE49 532427445#0 77616869#0 8080823#0" id="-129217471#2_to_8384431#4"/>
    <route edges="4074528#0 125872847#0 3792428 3792427#0 344354262 gneE62 37721356#0 4078079#1 38192817 gneE51 gneE49 532427445#0 14039609#0 -14039611#1 -14039611#0" id="-129217471#2_to_-14039611#0"/>
    <route edges="4074528#0 125872847#0 3792428 3792427#0 52879956 357012332#0 357012332#1 59604115 37956677#0 2294310#0 375772038#0 14151839#0 14151839#3" id="-129217471#2_to_14151839#3"/>
    <route edges="4074528#0 125872847#0 3792428 3792427#0 52879956 357012332#0 357012332#1 59604115 37956677#0 2294310#0 375772038#0 375772038#6 7849019#2 523892327#0 532435056#1 532435057#0 26545993#0" id="-129217471#2_to_26545993#0"/>
    <route edges="4074528#0 125872847#0 3792428 3792427#0 344354262 gneE62 37721356#0 4078079#1 38192817 gneE51 gneE49 532427445#0 77616869#0 8080823#0" id="-129217471#2_to_-13866268#1"/>
    <route edges="4074528#0 125872847#0 3792428 3792427#0 52879956 357012332#0 357012332#1 -53750892#4" id="-129217471#2_to_-53750892#4"/>
    <route edges="4074528#0 125872847#0 3792428 3792427#0 344354262 gneE62 37721356#0 4078079#1 38192817 gneE51 5976022 341583777#0 369977731" id="-129217471#2_to_6192247#0"/>
    <route edges="4074528#0 125872847#0 3792428 3792427#0 344354262 gneE62 37721356#0 4078079#1 38192817 gneE51 gneE49 532427445#0 77616869#0 8080823#0" id="4825341#2_to_-48455136#3"/>
    <route edges="4074528#0 125872847#0 3792428 3792427#0 344354262 gneE62 37721356#0 4078079#1 38192817 gneE51 gneE52 -43321722 -43321718#3" id="4825341#2_to_41502636#0"/>
    <route edges="4074528#0 125872847#0 3792428 3792427#0 344354262 gneE62 37721356#0 4078079#1 38192817 gneE51 gneE49 532427445#0 77616869#0 8080823#0" id="4825341#2_to_-13866343#0"/>
    <route edges="4074528#0 125872847#0 3792428 3792427#0 344354262 gneE62 37721356#0 4078079#1 38192815" id="4825341#2_to_38192815"/>
    <route edges="4074528#0 125872847#0 3792428 3792427#0 344354262 gneE62 37721356#0 4078079#1 38192817 gneE51 gneE49 532427445#0 77616869#0 8080823#0" id="4825341#2_to_48460623#2"/>
    <route edges="4074528#0 125872847#0 3792428 3792427#0 344354262 gneE62 37721356#0 4078079#1 38192817 gneE51 5976022 341583777#0 369977731" id="4825341#2_to_52375081#0"/>
    <route edges="4074528#0 125872847#0 3792428 3792427#0 52879956 357012332#0 357012332#1 59604115 37956677#0 4476051#0 352376956#0 4472595#0 26602093#0 14152304#0 14152308 4919460 4919471#2 4919471#3 38167515 4919535#1" id="4825341#2_to_4919535#1"/>
    <route edges="4074528#0 125872847#0 3792428 3792427#0 52879956 357012332#0 357012332#1 59604115 37956677#0 4476051#0 352376956#0 4472595#0 26602093#0 14152304#0 14152304#2 532427444#7 16309917#0" id="4825341#2_to_23045804#0"/>
    <route edges="4074528#0 125872847#0 3792428 3792427#0 344354262 gneE62 37721356#0 4078079#1 38192817 gneE51 5976022 341583777#0 369977731" id="4825341#2_to_350497554"/>
    <route edges="4074528#0 125872847#0 3792428 3792427#0 344354262 gneE62 37721356#0 4078079#1 38192817 gneE51 gneE49 532427445#0 77616869#0 8080823#0" id="4825341#2_to_13866344#0"/>
    <route edges="4074528#0 125872847#0 3792428 3792427#0 52879956 357012332#0 357012332#1 59604115 37956677#0 4476051#0 352376956#0 4472595#0 26602093#0 14152304#0 14152304#2 532427444#7 16309917#0" id="4825341#2_to_-6192247#0"/>
    <route edges="4074528#0 125872847#0 3792428 3792427#0 344354262 gneE62 37721356#0 4078079#1 38192817 gneE51 gneE49 532427445#0 77616869#0 8080823#0" id="4825341#2_to_-317027064#0"/>
    <route edges="4074528#0 125872847#0 3792428 3792427#0 344354262 gneE62 37721356#0 4078079#1 38192817 gneE51 gneE52 -43321722 -43321718#3" id="4825341#2_to_-237581109#1"/>
    <route edges="4074528#0 125872847#0 3792428 3792427#0 344354262 gneE62 37721356#0 4078079#1 38192817 gneE51 gneE49 532427445#0 77616869#0 8080823#0" id="4825341#2_to_-13894939#2"/>
    <route edges="4074528#0 125872847#0 3792428 3792427#0 52879956 357012332#0 357012332#1 59604115 37956677#0 4476051#0 352376956#0 4472595#0 26602093#0 14152304#0 14152308 4919460 4919471#2 24687121#0 24687121#2 4919459#2" id="4825341#2_to_4919459#2"/>
    <route edges="4074528#0 125872847#0 3792428 3792427#0 344354262 gneE62 37721356#0 4078079#1 38192817 gneE51 gneE49 532427445#0 14039609#0 -14039611#1 -14039611#0" id="4825341#2_to_-14039611#0"/>
    <route edges="4074528#0 125872847#0 3792428 3792427#0 344354262 gneE62 37721356#0 4078079#1 38192817 gneE51 gneE49 532427445#0 77616869#0 8080823#0" id="4825341#2_to_-48460623#0"/>
    <route edges="4074528#0 125872847#0 3792428 3792427#0 52879956 357012332#0 357012332#1 59604115 37956677#0 4476051#0 352376956#0 4472595#0 26602093#0 14152304#0 14152304#2 532427444#7 16309917#0" id="4825341#2_to_264876950#0"/>
    <route edges="4074528#0 125872847#0 3792428 3792427#0 344354262 gneE62 37721356#0 4078079#1 38192817 gneE51 gneE52 -43321722 -43321718#3" id="4825341#2_to_48455140#0"/>
    <route edges="4074528#0 125872847#0 3792428 3792427#0 344354262 gneE62 37721356#0 4078079#1 38192817 gneE51 gneE52 -43321722 -43321718#3" id="4825341#2_to_360313825#0"/>
    <route edges="4074528#0 125872847#0 3792428 3792427#0 344354262 gneE62 37721356#0 4078079#1 38192817 gneE51 gneE49 532427445#0 77616869#0 8080823#0" id="4825341#2_to_-228373557#1"/>
    <route edges="4074528#0 125872847#0 3792428 3792427#0 52879956 357012332#0 357012332#1 59604115 37956677#0 4476051#0 352376956#0 4472595#0 26602093#0 14152304#0 14152304#2 532427444#7 16309917#0" id="4825341#2_to_16309916#0"/>
    <route edges="4074528#0 125872847#0 3792428 3792427#0 344354262 gneE62 37721356#0 4078079#1 38192817 gneE51 gneE49 532427445#0 77616869#0 8080823#0" id="4825341#2_to_317027065#0"/>
    <route edges="4074528#0 125872847#0 3792428 3792427#0 52879956 357012332#0 357012332#1 59604115 37956677#0 2294310#0 375772038#0 375772038#6 53750891#0 521969635#0 -553868720 -553868718#0" id="4825341#2_to_488735970"/>
    <route edges="4074528#0 125872847#0 3792428 3792427#0 344354262 gneE62 37721356#0 4078079#1 38192817 gneE51 gneE52 -43321722 -43321718#3" id="4825341#2_to_43321720#2"/>
    <route edges="4074528#0 125872847#0 3792428 3792427#0 344354262 gneE62 37721356#0 4078079#1 38192817 gneE51 5976022 341583777#0 369977731" id="4825341#2_to_23050597"/>
    <route edges="4074528#0 125872847#0 3792428 3792427#0 344354262 gneE62 37721356#0 4078079#1 38192817 gneE51 gneE49 532427445#0 77616869#0 8080823#0" id="4825341#2_to_-125880830#7"/>
    <route edges="4074528#0 125872847#0 3792428 3792427#0 344354262 gneE62 37721356#0 4078079#1 38192817 gneE51 5976022 341583777#0 369977731" id="4825341#2_to_23045782"/>
    <route edges="4074528#0 125872847#0 3792428 3792427#0 344354262 gneE62 37721356#0 4078079#1 38192817 gneE51 gneE49 532427445#0 77616869#0 8080823#0" id="4825341#2_to_13866328#0"/>
    <route edges="4074528#0 125872847#0 3792428 3792427#0 344354262 gneE62 37721356#0 4078079#1 38192817 gneE51 gneE49 532427445#0 77616869#0 8080823#0" id="4825341#2_to_317027065#4"/>
    <route edges="4074528#0 125872847#0 3792428 3792427#0 344354262 gneE62 37721356#0 4078079#1 38192817 gneE51 gneE52 -43321722 -43321718#3" id="4825341#2_to_-30221014#1"/>
    <route edges="4074528#0 125872847#0 3792428 3792427#0 344354262 gneE62 37721356#0 4078079#1 38192817 gneE51 gneE52 -43321722 -43321718#3" id="4825341#2_to_13866268#0"/>
    <route edges="4074528#0 125872847#0 3792428 3792427#0 52879956 357012332#0 357012332#1 59604115 37956677#0 4476051#0 352376956#0 4472595#0 26602093#0 14152304#0 14152308 4919460 4919471#2 24687121#0 4919538 -5826896#0" id="4825341#2_to_-5826896#0"/>
    <route edges="4074528#0 125872847#0 3792428 3792427#0 344354262 gneE62 37721356#0 4078079#1 38192817 gneE51 5976022 341583777#0 369977731" id="4825341#2_to_23050598"/>
    <route edges="4074528#0 125872847#0 3792428 3792427#0 344354262 gneE62 37721356#0 4078079#1 38192817 gneE51 gneE49 532427445#0 77616869#0 8080823#0" id="4825341#2_to_-48455137#1"/>
    <route edges="4074528#0 125872847#0 3792428 3792427#0 52879956 357012332#0 357012332#1 59604115 37956677#0 4476051#0 352376956#0 4472595#0 26602093#0 14152304#0 14152308 4919460 4919471#2 24687121#0 4919538 5826896#1" id="4825341#2_to_5826896#1"/>
    <route edges="4074528#0 125872847#0 3792428 3792427#0 344354262 gneE62 37721356#0 4078079#1 38192817 gneE51 gneE49 532427445#0 77616869#0 8080823#0" id="4825341#2_to_13894939#3"/>
    <route edges="4074528#0 125872847#0 3792428 3792427#0 52879956 357012332#0 357012332#1 59604115 37956677#0 2294310#0 375772038#0 14151839#0 14151839#3" id="4825341#2_to_14151839#3"/>
    <route edges="4074528#0 125872847#0 3792428 3792427#0 344354262 gneE62 37721356#0 4078079#1 38192817 gneE51 gneE52 -43321722 -43321718#3" id="4825341#2_to_-4915293"/>
    <route edges="4074528#0 125872847#0 3792428 3792427#0 344354262 gneE62 37721356#0 4078079#1 38192817 gneE51 gneE49 532427445#0 77616869#0 8080823#0" id="4825341#2_to_-317027065#3"/>
    <route edges="4074528#0 125872847#0 3792428 10577341#0" id="4825341#2_to_10577341#0"/>
    <route edges="4074528#0 125872847#0 3792428 3792427#0 344354262 gneE62 37721356#0 4078079#1 38192817 gneE51 gneE49 532427445#0 77616869#0 8080823#0" id="4825341#2_to_-8384431#7"/>
    <route edges="4074528#0 125872847#0 3792428 3792427#0 344354262 gneE62 37721356#0 4078079#1 38192817 gneE51 5976022 341583777#0 369977731" id="4825341#2_to_4915298#0"/>
    <route edges="4074528#0 125872847#0 3792428 3792427#0 344354262 gneE62 37721356#0 4078079#1 38192817 gneE51 gneE52 -43321722 -43321718#3" id="4825341#2_to_48455139#4"/>
    <route edges="4074528#0 125872847#0 3792428 3792427#0 52879956 357012332#0 357012332#1 59604115 37956677#0 4476051#0 352376956#0 4472595#0 26602093#0 14152304#0 14152308 4919460 4919471#2 4919471#3 38167515 15464769#0" id="4825341#2_to_15464769#0"/>
    <route edges="22962979 -532427444#2 -341583777#1" id="13907386#0_to_-341583777#1"/>
    <route edges="129212233#0" id="13907386#0_to_125863788"/>
    <route edges="22962979 -532427444#2 14039867#0" id="13907386#0_to_14039867#0"/>
    <route edges="43321718#3 43321722 gneE53 gneE49 532427445#0 77616869#0 8080823#0" id="4401806_to_8080823#4"/>
    <route edges="43321718#3 43321722 gneE53 gneE49 532427445#0 48454248#0 14039718#0" id="4401806_to_-125886705#1"/>
    <route edges="43321718#3 43321722 gneE53 2294382#0 2294382#1 42636056 38192815" id="4401806_to_38192815"/>
    <route edges="43321718#3 43321722 gneE53 gneE49 532427445#0 14039609#0 14039609#2 317003251#0" id="4401806_to_317003251#0"/>
    <route edges="43321718#3 43321722 gneE53 gneE49 532427445#0 77616869#0" id="4401806_to_4628792#3"/>
    <route edges="43321718#3 43321722 gneE53 gneE49 532427445#0 14039609#0 -14039611#1 14039614" id="4401806_to_14039614"/>
    <route edges="22962979 532427444#3 532427444#4 -14152304#3 14152308 24349650 -532427444#7 -532427444#6 -532427444#3" id="4401806_to_-532427444#3"/>
    <route edges="22962979 532427444#3 532427444#4 -14152304#3 14152308 4919460 4919471#2 24687121#0 24687121#2" id="4401806_to_24687121#2"/>
    <route edges="22962979 532427444#3 532427444#4 -14152304#3 14152308 4919460 4919471#2 4919471#3 38167515" id="4401806_to_38167515"/>
    <route edges="22962979 -532427444#2 -341583777#1 -5976022 gneE52 -43321722 -43321718#3" id="4401806_to_43321719#0"/>
    <route edges="43321718#3 43321722 gneE53 gneE49 532427445#0 77616869#0 8080823#0" id="4401806_to_8384431#0"/>
    <route edges="-77616869#2" id="4401806_to_-77616869#2"/>
    <route edges="43321718#3 43321722 gneE53 2294382#0 2294382#1 42636056 38192816 4629169#0" id="4401806_to_4629169#0"/>
    <route edges="22962979 532427444#3 532427444#4 -14152304#3 14152308 4919460 4919471#2 24687121#0 4919538" id="4401806_to_4919538"/>
    <route edges="43321718#3 43321722 gneE53 gneE49 532427445#0 14039609#0 -14039611#1 -14039611#0" id="4401806_to_-14039611#0"/>
    <route edges="22962979 -532427444#2 -341583777#1 -5976022 gneE52 -43321722 -43321718#3" id="4401806_to_-4078078#1"/>
    <route edges="43538577#3 4401661#0" id="37721501#0_to_4401661#0"/>
    <route edges="43538577#3 668344588" id="37721501#0_to_668344588"/>
    <route edges="129212233#0" id="37721501#0_to_4401603#3"/>
    <route edges="4074528#0 125872847#0 3792428 3792427#0 344354262 gneE62 4628796#1" id="-3791034#1_to_44402155"/>
    <route edges="4074528#0 125872847#0 3792428 3792427#0 344354262 gneE62 37721356#0 4078079#1 38192817 gneE51 gneE52 -43321722 -43321718#3" id="-3791034#1_to_-52375062"/>
    <route edges="4074528#0 4074527#0" id="-3791034#1_to_84017574"/>
    <route edges="3791031#0 4074531#0" id="-3791034#1_to_-38574542#2"/>
    <route edges="3791031#0 4074531#0" id="-3791034#1_to_-245076120"/>
    <route edges="3791031#0 4074531#0" id="-3791034#1_to_50503784#0"/>